data/bus_differential_validation.dss
clear

new circuit.bus_differential_validation
~ basekv=0.4   pu=0.9959  mvasc1=1e6  mvasc3=1e6 basemva=0.5

new linecode.556mcm nphases=3 basefreq=50
~ rmatrix = ( 0.1000 | 0.0400    0.1000 |  0.0400    0.0400    0.1000)
~ xmatrix = ( 0.0583 |  0.0233    0.0583 | 0.0233    0.0233    0.0583)
~ cmatrix = (50.92958178940651  | -0  50.92958178940651 | -0 -0 50.92958178940651)

new line.line1 bus1=sourcebus.1.2.3 bus2=primary.1.2.3 linecode=556mcm length=1
new line.line2 bus1=primary.1.2.3 bus2=loadbus1.1.2.3 linecode=556mcm length=1
new line.line3 bus1=primary.1.2.3 bus2=loadbus2.1.2.3 linecode=556mcm length=1
new line.line4 bus1=primary.1.2.3 bus2=loadbus3.1.2.3 linecode=556mcm length=1

new load.L1 phases=3 loadbus1.1.2.3 kw=100 kvar=10 model=1
new load.L2 phases=3 loadbus2.1.2.3 kw=100 kvar=10 model=1
new load.L3 phases=3 loadbus3.1.2.3 kw=100 kvar=10 model=1

set voltagebases=[0.4]
set tolerance=0.000001
set defaultbasefreq=50
calcvoltagebases

solve